Info: SIMULATION PARAMETERS:
Info: TIMESTEP               2
Info: NUMBER OF STEPS        0
Info: STEPS PER CYCLE        20
Info: PERIODIC CELL BASIS 1  79.985 0 0
Info: PERIODIC CELL BASIS 2  0 79.997 0
Info: PERIODIC CELL BASIS 3  0 0 79.991
Info: PERIODIC CELL CENTER   -0.0315289 0.0479357 0.00649241
Info: WRAPPING WATERS AROUND PERIODIC BOUNDARIES ON OUTPUT.
Info: WRAPPING ALL CLUSTERS AROUND PERIODIC BOUNDARIES ON OUTPUT.
Info: FIRST LDB TIMESTEP     100
Info: LAST LDB TIMESTEP     -1
Info: HOM BACKGROUND SCALING 1
Info: PME BACKGROUND SCALING 1
Info: MIN ATOMS PER PATCH    40
Info: VELOCITY FILE          output/heat.restart.vel.old
Info: CENTER OF MASS MOVING INITIALLY? NO
Info: DIELECTRIC             1
Info: EXCLUDE                SCALED ONE-FOUR
Info: 1-4 ELECTROSTATICS SCALED BY 1
Info: MODIFIED 1-4 VDW PARAMETERS WILL BE USED
Info: DCD FILENAME           output/NPT-1.dcd
Info: DCD FREQUENCY          5000
Info: DCD FIRST STEP         5000
Info: DCD FILE WILL CONTAIN UNIT CELL DATA
Info: XST FILENAME           output/NPT-1.xst
Info: XST FREQUENCY          5000
Info: NO VELOCITY DCD OUTPUT
Info: NO FORCE DCD OUTPUT
Info: OUTPUT FILENAME        output/NPT-1
Info: BINARY OUTPUT FILES WILL BE USED
Info: RESTART FILENAME       output/NPT-1.restart
Info: RESTART FREQUENCY      5000
Info: BINARY RESTART FILES WILL BE USED
Info: SWITCHING ACTIVE
Info: SWITCHING ON           10
Info: SWITCHING OFF          12
Info: PAIRLIST DISTANCE      13.5
Info: PAIRLIST SHRINK RATE   0.01
Info: PAIRLIST GROW RATE     0.01
Info: PAIRLIST TRIGGER       0.3
Info: PAIRLISTS PER CYCLE    2
Info: PAIRLISTS ENABLED
Info: MARGIN                 0.96
Info: HYDROGEN GROUP CUTOFF  2.5
Info: PATCH DIMENSION        16.96
Info: ENERGY OUTPUT STEPS    100
Info: CROSSTERM ENERGY INCLUDED IN DIHEDRAL
Info: TIMING OUTPUT STEPS    5000
Info: PRESSURE OUTPUT STEPS  100
Info: LANGEVIN DYNAMICS ACTIVE
Info: LANGEVIN TEMPERATURE   310
Info: LANGEVIN USING BBK INTEGRATOR
Info: LANGEVIN DAMPING COEFFICIENT IS 1 INVERSE PS
Info: LANGEVIN DYNAMICS NOT APPLIED TO HYDROGENS
Info: LANGEVIN PISTON PRESSURE CONTROL ACTIVE
Info:        TARGET PRESSURE IS 1.01325 BAR
Info:     OSCILLATION PERIOD IS 2000 FS
Info:             DECAY TIME IS 2000 FS
Info:     PISTON TEMPERATURE IS 310 K
Info:       PRESSURE CONTROL IS GROUP-BASED
Info:    INITIAL STRAIN RATE IS 0 0 0
Info:       CELL FLUCTUATION IS ANISOTROPIC
Info:     SHAPE OF CELL IS CONSTRAINED IN X-Y PLANE
Info: PARTICLE MESH EWALD (PME) ACTIVE
Info: PME TOLERANCE               1e-06
Info: PME EWALD COEFFICIENT       0.257952
Info: PME INTERPOLATION ORDER     4
Info: PME GRID DIMENSIONS         80 80 80
Info: PME MAXIMUM GRID SPACING    1
Info: FULL ELECTROSTATIC EVALUATION FREQUENCY      2
Info: USING VERLET I (r-RESPA) MTS SCHEME.
Info: C1 SPLITTING OF LONG RANGE ELECTROSTATICS
Info: PLACING ATOMS IN PATCHES BY HYDROGEN GROUPS
Info: RIGID BONDS TO HYDROGEN : ALL
Info:         ERROR TOLERANCE : 1e-08
Info:          MAX ITERATIONS : 100
Info: RIGID WATER USING SETTLE ALGORITHM
Info: RANDOM NUMBER SEED     1404353737
Info: USE HYDROGEN BONDS?    NO
Info: COORDINATE PDB         ../solvated.pdb
Info: STRUCTURE FILE         ../solvated.psf
Info: PARAMETER file: CHARMM format!
Info: PARAMETERS             ../par_CMAP.inp
Info: USING ARITHMETIC MEAN TO COMBINE L-J SIGMA PARAMETERS
Info: BINARY COORDINATES     output/heat.restart.coor.old
Info: SUMMARY OF PARAMETERS:
Info: 259 BONDS
Info: 670 ANGLES
Info: 1141 DIHEDRAL
Info: 72 IMPROPER
Info: 6 CROSSTERM
Info: 164 VDW
Info: 0 VDW_PAIRS
Info: 0 NBTHOLE_PAIRS
Info: STRUCTURE SUMMARY:
Info: 49158 ATOMS
Info: 32772 BONDS
Info: 16386 ANGLES
Info: 0 DIHEDRALS
Info: 0 IMPROPERS
Info: 0 CROSSTERMS
Info: 0 EXCLUSIONS
Info: 49158 RIGID BONDS
Info: 98316 DEGREES OF FREEDOM
Info: 16386 HYDROGEN GROUPS
Info: 3 ATOMS IN LARGEST HYDROGEN GROUP
Info: 16386 MIGRATION GROUPS
Info: 3 ATOMS IN LARGEST MIGRATION GROUP
Info: TOTAL MASS = 295200 amu
Info: TOTAL CHARGE = 0 e
Info: MASS DENSITY = 0.957751 g/cm^3
Info: ATOM DENSITY = 0.0960441 atoms/A^3
Info: ADDED 49158 IMPLICIT EXCLUSIONS
Info: NONBONDED TABLE R-SQUARED SPACING: 0.0625
Info: NONBONDED TABLE SIZE: 769 POINTS
Info: Updated CUDA LJ table with 164 x 164 elements.
Info: Updated CUDA force table with 4096 elements.
Info: REMOVING COM VELOCITY 0.0314876 0.0208901 -0.00638855
Info: Found 3 unique exclusion lists needing 4 bytes
TCL: Running for 50000 steps
ETITLE: TS BOND ANGLE DIHED IMPRP ELECT VDW BOUNDARY MISC KINETIC TOTAL TEMP POTENTIAL TOTAL3 TEMPAVG PRESSURE GPRESSURE VOLUME PRESSAVG GPRESSAVG
ENERGY: 0 0.0000 0.0000 0.0000 0.0000 -172752.6817 16115.7496 0.0000 0.0000 30318.1724 -126318.7597 310.3625 -156636.9321 -126259.5419 310.3625 -771.6715 -739.1942 511827.2138 -771.6715 -739.1942
ENERGY: 10000 0.0000 0.0000 0.0000 0.0000 -175194.3084 16484.3567 0.0000 0.0000 30213.8627 -128496.0891 309.2947 -158709.9518 -128431.1935 308.0338 -180.9998 -148.7584 489473.2444 2.5181 2.4164
ENERGY: 20000 0.0000 0.0000 0.0000 0.0000 -174470.4856 16549.5539 0.0000 0.0000 30173.7560 -127747.1758 308.8841 -157920.9317 -127690.0065 310.7723 -44.3275 -10.3760 490362.0337 66.9484 67.2201
ENERGY: 30000 0.0000 0.0000 0.0000 0.0000 -175060.7213 16505.1721 0.0000 0.0000 29956.8951 -128598.6541 306.6641 -158555.5492 -128538.6387 308.6669 -167.9055 -134.2180 489857.6474 86.3547 86.0517
ENERGY: 40000 0.0000 0.0000 0.0000 0.0000 -174884.3305 16536.8739 0.0000 0.0000 30314.8308 -128032.6259 310.3283 -158347.4567 -127971.2201 309.1189 -196.5986 -161.4758 492572.0886 -69.3375 -68.9871
ENERGY: 50000 0.0000 0.0000 0.0000 0.0000 -175114.1169 16774.8301 0.0000 0.0000 30001.4843 -128337.8025 307.1206 -158339.2868 -128272.8611 307.4805 51.0239 82.4719 488905.0898 10.7066 10.5227
