Info: SIMULATION PARAMETERS:
Info: TIMESTEP               2
Info: NUMBER OF STEPS        0
Info: STEPS PER CYCLE        20
Info: PERIODIC CELL BASIS 1  50.995 0 0
Info: PERIODIC CELL BASIS 2  0 50.989 0
Info: PERIODIC CELL BASIS 3  0 0 50.969
Info: PERIODIC CELL CENTER   0.0440507 0.0320957 0.036301
Info: WRAPPING WATERS AROUND PERIODIC BOUNDARIES ON OUTPUT.
Info: WRAPPING ALL CLUSTERS AROUND PERIODIC BOUNDARIES ON OUTPUT.
Info: FIRST LDB TIMESTEP     100
Info: LAST LDB TIMESTEP     -1
Info: HOM BACKGROUND SCALING 1
Info: PME BACKGROUND SCALING 1
Info: MIN ATOMS PER PATCH    40
Info: VELOCITY FILE          output/mini-1.vel
Info: CENTER OF MASS MOVING INITIALLY? NO
Info: DIELECTRIC             1
Info: EXCLUDE                SCALED ONE-FOUR
Info: 1-4 ELECTROSTATICS SCALED BY 1
Info: MODIFIED 1-4 VDW PARAMETERS WILL BE USED
Info: DCD FILENAME           output/NPT.dcd
Info: DCD FREQUENCY          5000
Info: DCD FIRST STEP         5000
Info: DCD FILE WILL CONTAIN UNIT CELL DATA
Info: XST FILENAME           output/NPT.xst
Info: XST FREQUENCY          5000
Info: NO VELOCITY DCD OUTPUT
Info: NO FORCE DCD OUTPUT
Info: OUTPUT FILENAME        output/NPT
Info: BINARY OUTPUT FILES WILL BE USED
Info: RESTART FILENAME       output/NPT.restart
Info: RESTART FREQUENCY      5000
Info: BINARY RESTART FILES WILL BE USED
Info: SWITCHING ACTIVE
Info: SWITCHING ON           10
Info: SWITCHING OFF          12
Info: PAIRLIST DISTANCE      13.5
Info: PAIRLIST SHRINK RATE   0.01
Info: PAIRLIST GROW RATE     0.01
Info: PAIRLIST TRIGGER       0.3
Info: PAIRLISTS PER CYCLE    2
Info: PAIRLISTS ENABLED
Info: MARGIN                 0.96
Info: HYDROGEN GROUP CUTOFF  2.5
Info: PATCH DIMENSION        16.96
Info: ENERGY OUTPUT STEPS    100
Info: CROSSTERM ENERGY INCLUDED IN DIHEDRAL
Info: TIMING OUTPUT STEPS    5000
Info: PRESSURE OUTPUT STEPS  100
Info: LANGEVIN DYNAMICS ACTIVE
Info: LANGEVIN TEMPERATURE   310
Info: LANGEVIN USING BBK INTEGRATOR
Info: LANGEVIN DAMPING COEFFICIENT IS 1 INVERSE PS
Info: LANGEVIN DYNAMICS NOT APPLIED TO HYDROGENS
Info: LANGEVIN PISTON PRESSURE CONTROL ACTIVE
Info:        TARGET PRESSURE IS 1.01325 BAR
Info:     OSCILLATION PERIOD IS 2000 FS
Info:             DECAY TIME IS 2000 FS
Info:     PISTON TEMPERATURE IS 310 K
Info:       PRESSURE CONTROL IS GROUP-BASED
Info:    INITIAL STRAIN RATE IS 0 0 0
Info:       CELL FLUCTUATION IS ANISOTROPIC
Info:     SHAPE OF CELL IS CONSTRAINED IN X-Y PLANE
Info: PARTICLE MESH EWALD (PME) ACTIVE
Info: PME TOLERANCE               1e-06
Info: PME EWALD COEFFICIENT       0.257952
Info: PME INTERPOLATION ORDER     4
Info: PME GRID DIMENSIONS         54 54 54
Info: PME MAXIMUM GRID SPACING    1
Info: FULL ELECTROSTATIC EVALUATION FREQUENCY      2
Info: USING VERLET I (r-RESPA) MTS SCHEME.
Info: C1 SPLITTING OF LONG RANGE ELECTROSTATICS
Info: PLACING ATOMS IN PATCHES BY HYDROGEN GROUPS
Info: RIGID BONDS TO HYDROGEN : ALL
Info:         ERROR TOLERANCE : 1e-08
Info:          MAX ITERATIONS : 100
Info: RIGID WATER USING SETTLE ALGORITHM
Info: RANDOM NUMBER SEED     1463148767
Info: USE HYDROGEN BONDS?    NO
Info: COORDINATE PDB         ../ionized.pdb
Info: STRUCTURE FILE         ../ionized.psf
Info: PARAMETER file: CHARMM format!
Info: PARAMETERS             ../par_CMAP.inp
Info: USING ARITHMETIC MEAN TO COMBINE L-J SIGMA PARAMETERS
Info: BINARY COORDINATES     output/mini-1.coor
Info: SUMMARY OF PARAMETERS:
Info: 259 BONDS
Info: 670 ANGLES
Info: 1141 DIHEDRAL
Info: 72 IMPROPER
Info: 6 CROSSTERM
Info: 164 VDW
Info: 0 VDW_PAIRS
Info: 0 NBTHOLE_PAIRS
Info: STRUCTURE SUMMARY:
Info: 12486 ATOMS
Info: 8324 BONDS
Info: 4162 ANGLES
Info: 0 DIHEDRALS
Info: 0 IMPROPERS
Info: 0 CROSSTERMS
Info: 0 EXCLUSIONS
Info: 12486 RIGID BONDS
Info: 24972 DEGREES OF FREEDOM
Info: 4162 HYDROGEN GROUPS
Info: 3 ATOMS IN LARGEST HYDROGEN GROUP
Info: 4162 MIGRATION GROUPS
Info: 3 ATOMS IN LARGEST MIGRATION GROUP
Info: TOTAL MASS = 74980.1 amu
Info: TOTAL CHARGE = 0 e
Info: MASS DENSITY = 0.939496 g/cm^3
Info: ATOM DENSITY = 0.0942135 atoms/A^3
Info: ADDED 12486 IMPLICIT EXCLUSIONS
Info: NONBONDED TABLE R-SQUARED SPACING: 0.0625
Info: NONBONDED TABLE SIZE: 769 POINTS
Info: REMOVING COM VELOCITY 0 0 0
TCL: Running for 1000 steps
ETITLE: TS BOND ANGLE DIHED IMPRP ELECT VDW BOUNDARY MISC KINETIC TOTAL TEMP POTENTIAL TOTAL3 TEMPAVG PRESSURE GPRESSURE VOLUME PRESSAVG GPRESSAVG
ENERGY: 0 0.0000 0.0000 0.0000 0.0000 -55473.1044 6049.5222 0.0000 0.0000 0.0000 -49423.5822 0.0000 -49423.5822 -49423.4895 0.0000 -4692.1088 -4662.1122 132528.7788 -4692.1088 -4662.1122
ENERGY: 200 0.0000 0.0000 0.0000 0.0000 -56968.4977 8097.9466 0.0000 0.0000 1619.7724 -47250.7786 65.2816 -48870.5511 -47252.1553 51.1688 1752.2828 1790.8405 120286.0774 732.5527 732.9523
ENERGY: 400 0.0000 0.0000 0.0000 0.0000 -55216.1507 7082.3389 0.0000 0.0000 2585.3521 -45548.4597 104.1974 -48133.8118 -45545.9227 96.1307 611.3655 644.4648 118147.0878 1059.9747 1059.9971
ENERGY: 600 0.0000 0.0000 0.0000 0.0000 -53955.4870 6466.9626 0.0000 0.0000 3173.0758 -44315.4486 127.8844 -47488.5244 -44311.4478 122.8513 -636.8745 -600.1286 120746.5799 -548.0516 -547.7430
ENERGY: 800 0.0000 0.0000 0.0000 0.0000 -53352.7058 6487.9318 0.0000 0.0000 3703.7344 -43161.0396 149.2715 -46864.7740 -43156.6739 146.9517 60.9279 93.1373 120131.7883 87.9584 88.3357
ENERGY: 1000 0.0000 0.0000 0.0000 0.0000 -52825.6309 6343.3079 0.0000 0.0000 4197.6490 -42284.6740 169.1777 -46482.3230 -42278.5414 166.6881 13.1216 50.7552 120298.8446 -44.3628 -43.7825
