Info: SIMULATION PARAMETERS:
Info: TIMESTEP               2
Info: NUMBER OF STEPS        0
Info: STEPS PER CYCLE        20
Info: PERIODIC CELL BASIS 1  126.942 0 0
Info: PERIODIC CELL BASIS 2  0 126.985 0
Info: PERIODIC CELL BASIS 3  0 0 126.989
Info: PERIODIC CELL CENTER   0.0289032 0.111049 0.0133267
Info: WRAPPING WATERS AROUND PERIODIC BOUNDARIES ON OUTPUT.
Info: WRAPPING ALL CLUSTERS AROUND PERIODIC BOUNDARIES ON OUTPUT.
Info: FIRST LDB TIMESTEP     100
Info: LAST LDB TIMESTEP     -1
Info: HOM BACKGROUND SCALING 1
Info: PME BACKGROUND SCALING 1
Info: MIN ATOMS PER PATCH    40
Info: VELOCITY FILE          output/mini-1.vel
Info: CENTER OF MASS MOVING INITIALLY? NO
Info: DIELECTRIC             1
Info: EXCLUDE                SCALED ONE-FOUR
Info: 1-4 ELECTROSTATICS SCALED BY 1
Info: MODIFIED 1-4 VDW PARAMETERS WILL BE USED
Info: DCD FILENAME           output/NPT.dcd
Info: DCD FREQUENCY          5000
Info: DCD FIRST STEP         5000
Info: DCD FILE WILL CONTAIN UNIT CELL DATA
Info: XST FILENAME           output/NPT.xst
Info: XST FREQUENCY          5000
Info: NO VELOCITY DCD OUTPUT
Info: NO FORCE DCD OUTPUT
Info: OUTPUT FILENAME        output/NPT
Info: BINARY OUTPUT FILES WILL BE USED
Info: RESTART FILENAME       output/NPT.restart
Info: RESTART FREQUENCY      5000
Info: BINARY RESTART FILES WILL BE USED
Info: SWITCHING ACTIVE
Info: SWITCHING ON           10
Info: SWITCHING OFF          12
Info: PAIRLIST DISTANCE      13.5
Info: PAIRLIST SHRINK RATE   0.01
Info: PAIRLIST GROW RATE     0.01
Info: PAIRLIST TRIGGER       0.3
Info: PAIRLISTS PER CYCLE    2
Info: PAIRLISTS ENABLED
Info: MARGIN                 0.96
Info: HYDROGEN GROUP CUTOFF  2.5
Info: PATCH DIMENSION        16.96
Info: ENERGY OUTPUT STEPS    100
Info: CROSSTERM ENERGY INCLUDED IN DIHEDRAL
Info: TIMING OUTPUT STEPS    5000
Info: PRESSURE OUTPUT STEPS  100
Info: LANGEVIN DYNAMICS ACTIVE
Info: LANGEVIN TEMPERATURE   310
Info: LANGEVIN USING BBK INTEGRATOR
Info: LANGEVIN DAMPING COEFFICIENT IS 1 INVERSE PS
Info: LANGEVIN DYNAMICS NOT APPLIED TO HYDROGENS
Info: LANGEVIN PISTON PRESSURE CONTROL ACTIVE
Info:        TARGET PRESSURE IS 1.01325 BAR
Info:     OSCILLATION PERIOD IS 2000 FS
Info:             DECAY TIME IS 2000 FS
Info:     PISTON TEMPERATURE IS 310 K
Info:       PRESSURE CONTROL IS GROUP-BASED
Info:    INITIAL STRAIN RATE IS 0 0 0
Info:       CELL FLUCTUATION IS ANISOTROPIC
Info:     SHAPE OF CELL IS CONSTRAINED IN X-Y PLANE
Info: PARTICLE MESH EWALD (PME) ACTIVE
Info: PME TOLERANCE               1e-06
Info: PME EWALD COEFFICIENT       0.257952
Info: PME INTERPOLATION ORDER     4
Info: PME GRID DIMENSIONS         128 128 128
Info: PME MAXIMUM GRID SPACING    1
Info: FULL ELECTROSTATIC EVALUATION FREQUENCY      2
Info: USING VERLET I (r-RESPA) MTS SCHEME.
Info: C1 SPLITTING OF LONG RANGE ELECTROSTATICS
Info: PLACING ATOMS IN PATCHES BY HYDROGEN GROUPS
Info: RIGID BONDS TO HYDROGEN : ALL
Info:         ERROR TOLERANCE : 1e-08
Info:          MAX ITERATIONS : 100
Info: RIGID WATER USING SETTLE ALGORITHM
Info: RANDOM NUMBER SEED     1463151031
Info: USE HYDROGEN BONDS?    NO
Info: COORDINATE PDB         ../ionized.pdb
Info: STRUCTURE FILE         ../ionized.psf
Info: PARAMETER file: CHARMM format!
Info: PARAMETERS             ../par_CMAP.inp
Info: USING ARITHMETIC MEAN TO COMBINE L-J SIGMA PARAMETERS
Info: BINARY COORDINATES     output/mini-1.coor
Info: SUMMARY OF PARAMETERS:
Info: 259 BONDS
Info: 670 ANGLES
Info: 1141 DIHEDRAL
Info: 72 IMPROPER
Info: 6 CROSSTERM
Info: 164 VDW
Info: 0 VDW_PAIRS
Info: 0 NBTHOLE_PAIRS
Info: STRUCTURE SUMMARY:
Info: 199371 ATOMS
Info: 132914 BONDS
Info: 66457 ANGLES
Info: 0 DIHEDRALS
Info: 0 IMPROPERS
Info: 0 CROSSTERMS
Info: 0 EXCLUSIONS
Info: 199371 RIGID BONDS
Info: 398742 DEGREES OF FREEDOM
Info: 66457 HYDROGEN GROUPS
Info: 3 ATOMS IN LARGEST HYDROGEN GROUP
Info: 66457 MIGRATION GROUPS
Info: 3 ATOMS IN LARGEST MIGRATION GROUP
Info: TOTAL MASS = 1.19725e+06 amu
Info: TOTAL CHARGE = 0 e
Info: MASS DENSITY = 0.971225 g/cm^3
Info: ATOM DENSITY = 0.0973953 atoms/A^3
Info: ADDED 199371 IMPLICIT EXCLUSIONS
Info: NONBONDED TABLE R-SQUARED SPACING: 0.0625
Info: NONBONDED TABLE SIZE: 769 POINTS
Info: REMOVING COM VELOCITY 0 0 0
TCL: Running for 1000 steps
ETITLE: TS BOND ANGLE DIHED IMPRP ELECT VDW BOUNDARY MISC KINETIC TOTAL TEMP POTENTIAL TOTAL3 TEMPAVG PRESSURE GPRESSURE VOLUME PRESSAVG GPRESSAVG
ENERGY: 0 0.0000 0.0000 0.0000 0.0000 -883039.4937 90976.1162 0.0000 0.0000 0.0000 -792063.3775 0.0000 -792063.3775 -792062.2176 0.0000 -5342.9520 -5309.3559 2047028.3824 -5342.9520 -5309.3559
ENERGY: 200 0.0000 0.0000 0.0000 0.0000 -913983.9204 130136.5341 0.0000 0.0000 26811.3859 -757036.0004 67.6733 -783847.3863 -757064.0765 53.7372 2353.5276 2389.5429 1855904.0379 1261.0006 1261.2536
ENERGY: 400 0.0000 0.0000 0.0000 0.0000 -880635.2773 108610.1857 0.0000 0.0000 40769.8946 -731255.1970 102.9054 -772025.0916 -731254.8966 95.2961 36.4589 74.1876 1862715.7793 803.1399 803.0462
ENERGY: 600 0.0000 0.0000 0.0000 0.0000 -865969.7501 104484.0925 0.0000 0.0000 51224.9783 -710260.6793 129.2945 -761485.6576 -710231.6280 122.8884 -420.6961 -384.8180 1907408.8252 -525.3529 -525.4429
ENERGY: 800 0.0000 0.0000 0.0000 0.0000 -857217.7373 104480.2247 0.0000 0.0000 60022.0188 -692715.4938 151.4987 -752737.5126 -692659.6981 146.4377 167.6238 203.1086 1896350.2437 83.4385 83.4477
ENERGY: 1000 0.0000 0.0000 0.0000 0.0000 -844169.7956 99940.4222 0.0000 0.0000 67237.8330 -676991.5403 169.7118 -744229.3733 -676901.1440 165.7341 -44.6714 -8.3264 1898600.2534 31.7180 31.6550
